&DOMAIN
  Lx         = 6.283185307179586d0
  Ly         = 3.141592653589793d0
  Lz         = 1.d0
  
  nxLES      = 16
  nyLES      = 16
  nzLES      = 8

  nxLESperQH = 2
  nyLESperQH = 2
  nzLESperQH = 2

  nxF        = 64 
  nyF        = 64 
  nzF        = 32

  prow       = 0
  pcol       = 0

  decomp2Dpencil = x
/
/
&LARGESCALES
  cL = 1 ! Coefficient on length scale definition
/
/
&IO
  datadir    = '/work2/06632/ryanhass/stampede2/Enrichment/GaborKS_V2Data/tests/GaborModes'
  outputdir  = '/work2/06632/ryanhass/stampede2/Enrichment/GaborKS_V2Data/tests/GaborModes'
/
/
&GABOR
  nk        = 10                    ! Number of wavenumber shells spanned by Gabor modes
  ntheta    = 10                    ! Number of modes per wavenumber shell
  scalefact = 0.670820393249937d0   ! A tuneable parameters to get correct energy spectrum 
  ctau      = 7.d0                  ! Model parameter for mode straining
/
